*SPEF "IEEE 1481-1998"
*DESIGN "dist_sort"
*DATE "Mon Nov 25 13:35:59 2024"
*VENDOR "Cadence Design Systems, Inc."
*PROGRAM "Innovus"
*VERSION "23.12-s091_1"
*DESIGN_FLOW "PIN_CAP NONE" "NAME_SCOPE LOCAL"
*DIVIDER /
*DELIMITER :
*BUS_DELIMITER []
*T_UNIT 1 NS
*C_UNIT 1 PF
*R_UNIT 1 OHM
*L_UNIT 1 HENRY

// MMMC spef file for corner 'RC_corner_25'

*NAME_MAP

*1 clk
*2 rst
*3 query[63]
*4 query[62]
*5 query[61]
*6 query[60]
*7 query[59]
*8 query[58]
*9 query[57]
*10 query[56]
*11 query[55]
*12 query[54]
*13 query[53]
*14 query[52]
*15 query[51]
*16 query[50]
*17 query[49]
*18 query[48]
*19 query[47]
*20 query[46]
*21 query[45]
*22 query[44]
*23 query[43]
*24 query[42]
*25 query[41]
*26 query[40]
*27 query[39]
*28 query[38]
*29 query[37]
*30 query[36]
*31 query[35]
*32 query[34]
*33 query[33]
*34 query[32]
*35 query[31]
*36 query[30]
*37 query[29]
*38 query[28]
*39 query[27]
*40 query[26]
*41 query[25]
*42 query[24]
*43 query[23]
*44 query[22]
*45 query[21]
*46 query[20]
*47 query[19]
*48 query[18]
*49 query[17]
*50 query[16]
*51 query[15]
*52 query[14]
*53 query[13]
*54 query[12]
*55 query[11]
*56 query[10]
*57 query[9]
*58 query[8]
*59 query[7]
*60 query[6]
*61 query[5]
*62 query[4]
*63 query[3]
*64 query[2]
*65 query[1]
*66 query[0]
*67 search_0[63]
*68 search_0[62]
*69 search_0[61]
*70 search_0[60]
*71 search_0[59]
*72 search_0[58]
*73 search_0[57]
*74 search_0[56]
*75 search_0[55]
*76 search_0[54]
*77 search_0[53]
*78 search_0[52]
*79 search_0[51]
*80 search_0[50]
*81 search_0[49]
*82 search_0[48]
*83 search_0[47]
*84 search_0[46]
*85 search_0[45]
*86 search_0[44]
*87 search_0[43]
*88 search_0[42]
*89 search_0[41]
*90 search_0[40]
*91 search_0[39]
*92 search_0[38]
*93 search_0[37]
*94 search_0[36]
*95 search_0[35]
*96 search_0[34]
*97 search_0[33]
*98 search_0[32]
*99 search_0[31]
*100 search_0[30]
*101 search_0[29]
*102 search_0[28]
*103 search_0[27]
*104 search_0[26]
*105 search_0[25]
*106 search_0[24]
*107 search_0[23]
*108 search_0[22]
*109 search_0[21]
*110 search_0[20]
*111 search_0[19]
*112 search_0[18]
*113 search_0[17]
*114 search_0[16]
*115 search_0[15]
*116 search_0[14]
*117 search_0[13]
*118 search_0[12]
*119 search_0[11]
*120 search_0[10]
*121 search_0[9]
*122 search_0[8]
*123 search_0[7]
*124 search_0[6]
*125 search_0[5]
*126 search_0[4]
*127 search_0[3]
*128 search_0[2]
*129 search_0[1]
*130 search_0[0]
*131 search_1[63]
*132 search_1[62]
*133 search_1[61]
*134 search_1[60]
*135 search_1[59]
*136 search_1[58]
*137 search_1[57]
*138 search_1[56]
*139 search_1[55]
*140 search_1[54]
*141 search_1[53]
*142 search_1[52]
*143 search_1[51]
*144 search_1[50]
*145 search_1[49]
*146 search_1[48]
*147 search_1[47]
*148 search_1[46]
*149 search_1[45]
*150 search_1[44]
*151 search_1[43]
*152 search_1[42]
*153 search_1[41]
*154 search_1[40]
*155 search_1[39]
*156 search_1[38]
*157 search_1[37]
*158 search_1[36]
*159 search_1[35]
*160 search_1[34]
*161 search_1[33]
*162 search_1[32]
*163 search_1[31]
*164 search_1[30]
*165 search_1[29]
*166 search_1[28]
*167 search_1[27]
*168 search_1[26]
*169 search_1[25]
*170 search_1[24]
*171 search_1[23]
*172 search_1[22]
*173 search_1[21]
*174 search_1[20]
*175 search_1[19]
*176 search_1[18]
*177 search_1[17]
*178 search_1[16]
*179 search_1[15]
*180 search_1[14]
*181 search_1[13]
*182 search_1[12]
*183 search_1[11]
*184 search_1[10]
*185 search_1[9]
*186 search_1[8]
*187 search_1[7]
*188 search_1[6]
*189 search_1[5]
*190 search_1[4]
*191 search_1[3]
*192 search_1[2]
*193 search_1[1]
*194 search_1[0]
*195 search_2[63]
*196 search_2[62]
*197 search_2[61]
*198 search_2[60]
*199 search_2[59]
*200 search_2[58]
*201 search_2[57]
*202 search_2[56]
*203 search_2[55]
*204 search_2[54]
*205 search_2[53]
*206 search_2[52]
*207 search_2[51]
*208 search_2[50]
*209 search_2[49]
*210 search_2[48]
*211 search_2[47]
*212 search_2[46]
*213 search_2[45]
*214 search_2[44]
*215 search_2[43]
*216 search_2[42]
*217 search_2[41]
*218 search_2[40]
*219 search_2[39]
*220 search_2[38]
*221 search_2[37]
*222 search_2[36]
*223 search_2[35]
*224 search_2[34]
*225 search_2[33]
*226 search_2[32]
*227 search_2[31]
*228 search_2[30]
*229 search_2[29]
*230 search_2[28]
*231 search_2[27]
*232 search_2[26]
*233 search_2[25]
*234 search_2[24]
*235 search_2[23]
*236 search_2[22]
*237 search_2[21]
*238 search_2[20]
*239 search_2[19]
*240 search_2[18]
*241 search_2[17]
*242 search_2[16]
*243 search_2[15]
*244 search_2[14]
*245 search_2[13]
*246 search_2[12]
*247 search_2[11]
*248 search_2[10]
*249 search_2[9]
*250 search_2[8]
*251 search_2[7]
*252 search_2[6]
*253 search_2[5]
*254 search_2[4]
*255 search_2[3]
*256 search_2[2]
*257 search_2[1]
*258 search_2[0]
*259 search_3[63]
*260 search_3[62]
*261 search_3[61]
*262 search_3[60]
*263 search_3[59]
*264 search_3[58]
*265 search_3[57]
*266 search_3[56]
*267 search_3[55]
*268 search_3[54]
*269 search_3[53]
*270 search_3[52]
*271 search_3[51]
*272 search_3[50]
*273 search_3[49]
*274 search_3[48]
*275 search_3[47]
*276 search_3[46]
*277 search_3[45]
*278 search_3[44]
*279 search_3[43]
*280 search_3[42]
*281 search_3[41]
*282 search_3[40]
*283 search_3[39]
*284 search_3[38]
*285 search_3[37]
*286 search_3[36]
*287 search_3[35]
*288 search_3[34]
*289 search_3[33]
*290 search_3[32]
*291 search_3[31]
*292 search_3[30]
*293 search_3[29]
*294 search_3[28]
*295 search_3[27]
*296 search_3[26]
*297 search_3[25]
*298 search_3[24]
*299 search_3[23]
*300 search_3[22]
*301 search_3[21]
*302 search_3[20]
*303 search_3[19]
*304 search_3[18]
*305 search_3[17]
*306 search_3[16]
*307 search_3[15]
*308 search_3[14]
*309 search_3[13]
*310 search_3[12]
*311 search_3[11]
*312 search_3[10]
*313 search_3[9]
*314 search_3[8]
*315 search_3[7]
*316 search_3[6]
*317 search_3[5]
*318 search_3[4]
*319 search_3[3]
*320 search_3[2]
*321 search_3[1]
*322 search_3[0]
*323 search_4[63]
*324 search_4[62]
*325 search_4[61]
*326 search_4[60]
*327 search_4[59]
*328 search_4[58]
*329 search_4[57]
*330 search_4[56]
*331 search_4[55]
*332 search_4[54]
*333 search_4[53]
*334 search_4[52]
*335 search_4[51]
*336 search_4[50]
*337 search_4[49]
*338 search_4[48]
*339 search_4[47]
*340 search_4[46]
*341 search_4[45]
*342 search_4[44]
*343 search_4[43]
*344 search_4[42]
*345 search_4[41]
*346 search_4[40]
*347 search_4[39]
*348 search_4[38]
*349 search_4[37]
*350 search_4[36]
*351 search_4[35]
*352 search_4[34]
*353 search_4[33]
*354 search_4[32]
*355 search_4[31]
*356 search_4[30]
*357 search_4[29]
*358 search_4[28]
*359 search_4[27]
*360 search_4[26]
*361 search_4[25]
*362 search_4[24]
*363 search_4[23]
*364 search_4[22]
*365 search_4[21]
*366 search_4[20]
*367 search_4[19]
*368 search_4[18]
*369 search_4[17]
*370 search_4[16]
*371 search_4[15]
*372 search_4[14]
*373 search_4[13]
*374 search_4[12]
*375 search_4[11]
*376 search_4[10]
*377 search_4[9]
*378 search_4[8]
*379 search_4[7]
*380 search_4[6]
*381 search_4[5]
*382 search_4[4]
*383 search_4[3]
*384 search_4[2]
*385 search_4[1]
*386 search_4[0]
*387 search_5[63]
*388 search_5[62]
*389 search_5[61]
*390 search_5[60]
*391 search_5[59]
*392 search_5[58]
*393 search_5[57]
*394 search_5[56]
*395 search_5[55]
*396 search_5[54]
*397 search_5[53]
*398 search_5[52]
*399 search_5[51]
*400 search_5[50]
*401 search_5[49]
*402 search_5[48]
*403 search_5[47]
*404 search_5[46]
*405 search_5[45]
*406 search_5[44]
*407 search_5[43]
*408 search_5[42]
*409 search_5[41]
*410 search_5[40]
*411 search_5[39]
*412 search_5[38]
*413 search_5[37]
*414 search_5[36]
*415 search_5[35]
*416 search_5[34]
*417 search_5[33]
*418 search_5[32]
*419 search_5[31]
*420 search_5[30]
*421 search_5[29]
*422 search_5[28]
*423 search_5[27]
*424 search_5[26]
*425 search_5[25]
*426 search_5[24]
*427 search_5[23]
*428 search_5[22]
*429 search_5[21]
*430 search_5[20]
*431 search_5[19]
*432 search_5[18]
*433 search_5[17]
*434 search_5[16]
*435 search_5[15]
*436 search_5[14]
*437 search_5[13]
*438 search_5[12]
*439 search_5[11]
*440 search_5[10]
*441 search_5[9]
*442 search_5[8]
*443 search_5[7]
*444 search_5[6]
*445 search_5[5]
*446 search_5[4]
*447 search_5[3]
*448 search_5[2]
*449 search_5[1]
*450 search_5[0]
*451 search_6[63]
*452 search_6[62]
*453 search_6[61]
*454 search_6[60]
*455 search_6[59]
*456 search_6[58]
*457 search_6[57]
*458 search_6[56]
*459 search_6[55]
*460 search_6[54]
*461 search_6[53]
*462 search_6[52]
*463 search_6[51]
*464 search_6[50]
*465 search_6[49]
*466 search_6[48]
*467 search_6[47]
*468 search_6[46]
*469 search_6[45]
*470 search_6[44]
*471 search_6[43]
*472 search_6[42]
*473 search_6[41]
*474 search_6[40]
*475 search_6[39]
*476 search_6[38]
*477 search_6[37]
*478 search_6[36]
*479 search_6[35]
*480 search_6[34]
*481 search_6[33]
*482 search_6[32]
*483 search_6[31]
*484 search_6[30]
*485 search_6[29]
*486 search_6[28]
*487 search_6[27]
*488 search_6[26]
*489 search_6[25]
*490 search_6[24]
*491 search_6[23]
*492 search_6[22]
*493 search_6[21]
*494 search_6[20]
*495 search_6[19]
*496 search_6[18]
*497 search_6[17]
*498 search_6[16]
*499 search_6[15]
*500 search_6[14]
*501 search_6[13]
*502 search_6[12]
*503 search_6[11]
*504 search_6[10]
*505 search_6[9]
*506 search_6[8]
*507 search_6[7]
*508 search_6[6]
*509 search_6[5]
*510 search_6[4]
*511 search_6[3]
*512 search_6[2]
*513 search_6[1]
*514 search_6[0]
*515 search_7[63]
*516 search_7[62]
*517 search_7[61]
*518 search_7[60]
*519 search_7[59]
*520 search_7[58]
*521 search_7[57]
*522 search_7[56]
*523 search_7[55]
*524 search_7[54]
*525 search_7[53]
*526 search_7[52]
*527 search_7[51]
*528 search_7[50]
*529 search_7[49]
*530 search_7[48]
*531 search_7[47]
*532 search_7[46]
*533 search_7[45]
*534 search_7[44]
*535 search_7[43]
*536 search_7[42]
*537 search_7[41]
*538 search_7[40]
*539 search_7[39]
*540 search_7[38]
*541 search_7[37]
*542 search_7[36]
*543 search_7[35]
*544 search_7[34]
*545 search_7[33]
*546 search_7[32]
*547 search_7[31]
*548 search_7[30]
*549 search_7[29]
*550 search_7[28]
*551 search_7[27]
*552 search_7[26]
*553 search_7[25]
*554 search_7[24]
*555 search_7[23]
*556 search_7[22]
*557 search_7[21]
*558 search_7[20]
*559 search_7[19]
*560 search_7[18]
*561 search_7[17]
*562 search_7[16]
*563 search_7[15]
*564 search_7[14]
*565 search_7[13]
*566 search_7[12]
*567 search_7[11]
*568 search_7[10]
*569 search_7[9]
*570 search_7[8]
*571 search_7[7]
*572 search_7[6]
*573 search_7[5]
*574 search_7[4]
*575 search_7[3]
*576 search_7[2]
*577 search_7[1]
*578 search_7[0]
*579 in_valid
*580 addr_1st[2]
*581 addr_1st[1]
*582 addr_1st[0]
*583 addr_2nd[2]
*584 addr_2nd[1]
*585 addr_2nd[0]
*586 out_valid
*587 N16214
*588 N16470
*589 N17565
*590 DP_OP_680J1_122_2455_n744
*591 DP_OP_680J1_122_2455_n473
*592 DP_OP_680J1_122_2455_n430
*593 DP_OP_680J1_122_2455_n410
*594 DP_OP_680J1_122_2455_n266
*595 DP_OP_681J1_123_2455_n887
*596 DP_OP_681J1_123_2455_n624
*597 DP_OP_681J1_123_2455_n589
*598 DP_OP_681J1_123_2455_n410
*599 DP_OP_681J1_123_2455_n344
*600 DP_OP_681J1_123_2455_n330
*601 DP_OP_681J1_123_2455_n324
*602 DP_OP_681J1_123_2455_n269
*603 DP_OP_681J1_123_2455_n262
*604 DP_OP_681J1_123_2455_n234
*605 DP_OP_682J1_124_2455_n987
*606 DP_OP_682J1_124_2455_n964
*607 DP_OP_682J1_124_2455_n951
*608 DP_OP_682J1_124_2455_n946
*609 DP_OP_682J1_124_2455_n923
*610 DP_OP_682J1_124_2455_n882
*611 DP_OP_682J1_124_2455_n834
*612 DP_OP_682J1_124_2455_n832
*613 DP_OP_682J1_124_2455_n807
*614 DP_OP_682J1_124_2455_n788
*615 DP_OP_682J1_124_2455_n757
*616 DP_OP_682J1_124_2455_n741
*617 DP_OP_682J1_124_2455_n734
*618 DP_OP_682J1_124_2455_n724
*619 DP_OP_682J1_124_2455_n722
*620 DP_OP_682J1_124_2455_n701
*621 DP_OP_682J1_124_2455_n693
*622 DP_OP_682J1_124_2455_n655
*623 DP_OP_682J1_124_2455_n650
*624 DP_OP_682J1_124_2455_n622
*625 DP_OP_682J1_124_2455_n606
*626 DP_OP_682J1_124_2455_n605
*627 DP_OP_682J1_124_2455_n597
*628 DP_OP_682J1_124_2455_n593
*629 DP_OP_682J1_124_2455_n416
*630 DP_OP_682J1_124_2455_n323
*631 DP_OP_682J1_124_2455_n322
*632 DP_OP_682J1_124_2455_n267
*633 DP_OP_682J1_124_2455_n143
*634 DP_OP_687J1_129_2455_n1274
*635 DP_OP_687J1_129_2455_n1255
*636 DP_OP_687J1_129_2455_n1236
*637 DP_OP_687J1_129_2455_n1217
*638 DP_OP_687J1_129_2455_n1198
*639 DP_OP_687J1_129_2455_n1179
*640 DP_OP_687J1_129_2455_n1160
*641 DP_OP_687J1_129_2455_n1157
*642 DP_OP_687J1_129_2455_n1152
*643 DP_OP_687J1_129_2455_n1141
*644 DP_OP_687J1_129_2455_n1138
*645 DP_OP_687J1_129_2455_n1133
*646 DP_OP_687J1_129_2455_n1122
*647 DP_OP_687J1_129_2455_n1103
*648 DP_OP_687J1_129_2455_n1084
*649 DP_OP_687J1_129_2455_n1065
*650 DP_OP_687J1_129_2455_n1046
*651 DP_OP_687J1_129_2455_n1027
*652 DP_OP_687J1_129_2455_n1024
*653 DP_OP_687J1_129_2455_n1019
*654 DP_OP_687J1_129_2455_n1008
*655 DP_OP_687J1_129_2455_n989
*656 DP_OP_687J1_129_2455_n970
*657 DP_OP_687J1_129_2455_n959
*658 DP_OP_687J1_129_2455_n957
*659 DP_OP_687J1_129_2455_n953
*660 DP_OP_687J1_129_2455_n952
*661 DP_OP_687J1_129_2455_n949
*662 DP_OP_687J1_129_2455_n947
*663 DP_OP_687J1_129_2455_n936
*664 DP_OP_687J1_129_2455_n935
*665 DP_OP_687J1_129_2455_n934
*666 DP_OP_687J1_129_2455_n933
*667 DP_OP_687J1_129_2455_n930
*668 DP_OP_687J1_129_2455_n929
*669 DP_OP_687J1_129_2455_n928
*670 DP_OP_687J1_129_2455_n927
*671 DP_OP_687J1_129_2455_n926
*672 DP_OP_687J1_129_2455_n924
*673 DP_OP_687J1_129_2455_n913
*674 DP_OP_687J1_129_2455_n912
*675 DP_OP_687J1_129_2455_n911
*676 DP_OP_687J1_129_2455_n910
*677 DP_OP_687J1_129_2455_n907
*678 DP_OP_687J1_129_2455_n906
*679 DP_OP_687J1_129_2455_n905
*680 DP_OP_687J1_129_2455_n904
*681 DP_OP_687J1_129_2455_n901
*682 DP_OP_687J1_129_2455_n890
*683 DP_OP_687J1_129_2455_n889
*684 DP_OP_687J1_129_2455_n888
*685 DP_OP_687J1_129_2455_n884
*686 DP_OP_687J1_129_2455_n883
*687 DP_OP_687J1_129_2455_n882
*688 DP_OP_687J1_129_2455_n881
*689 DP_OP_687J1_129_2455_n880
*690 DP_OP_687J1_129_2455_n878
*691 DP_OP_687J1_129_2455_n876
*692 DP_OP_687J1_129_2455_n867
*693 DP_OP_687J1_129_2455_n866
*694 DP_OP_687J1_129_2455_n865
*695 DP_OP_687J1_129_2455_n864
*696 DP_OP_687J1_129_2455_n861
*697 DP_OP_687J1_129_2455_n860
*698 DP_OP_687J1_129_2455_n859
*699 DP_OP_687J1_129_2455_n858
*700 DP_OP_687J1_129_2455_n857
*701 DP_OP_687J1_129_2455_n855
*702 DP_OP_687J1_129_2455_n844
*703 DP_OP_687J1_129_2455_n843
*704 DP_OP_687J1_129_2455_n842
*705 DP_OP_687J1_129_2455_n841
*706 DP_OP_687J1_129_2455_n838
*707 DP_OP_687J1_129_2455_n837
*708 DP_OP_687J1_129_2455_n836
*709 DP_OP_687J1_129_2455_n834
*710 DP_OP_687J1_129_2455_n832
*711 DP_OP_687J1_129_2455_n821
*712 DP_OP_687J1_129_2455_n820
*713 DP_OP_687J1_129_2455_n819
*714 DP_OP_687J1_129_2455_n818
*715 DP_OP_687J1_129_2455_n815
*716 DP_OP_687J1_129_2455_n814
*717 DP_OP_687J1_129_2455_n813
*718 DP_OP_687J1_129_2455_n812
*719 DP_OP_687J1_129_2455_n811
*720 DP_OP_687J1_129_2455_n809
*721 DP_OP_687J1_129_2455_n798
*722 DP_OP_687J1_129_2455_n797
*723 DP_OP_687J1_129_2455_n796
*724 DP_OP_687J1_129_2455_n795
*725 DP_OP_687J1_129_2455_n792
*726 DP_OP_687J1_129_2455_n791
*727 DP_OP_687J1_129_2455_n790
*728 DP_OP_687J1_129_2455_n789
*729 DP_OP_687J1_129_2455_n788
*730 DP_OP_687J1_129_2455_n786
*731 DP_OP_687J1_129_2455_n775
*732 DP_OP_687J1_129_2455_n774
*733 DP_OP_687J1_129_2455_n773
*734 DP_OP_687J1_129_2455_n772
*735 DP_OP_687J1_129_2455_n769
*736 DP_OP_687J1_129_2455_n768
*737 DP_OP_687J1_129_2455_n767
*738 DP_OP_687J1_129_2455_n765
*739 DP_OP_687J1_129_2455_n763
*740 DP_OP_687J1_129_2455_n752
*741 DP_OP_687J1_129_2455_n751
*742 DP_OP_687J1_129_2455_n750
*743 DP_OP_687J1_129_2455_n746
*744 DP_OP_687J1_129_2455_n745
*745 DP_OP_687J1_129_2455_n744
*746 DP_OP_687J1_129_2455_n743
*747 DP_OP_687J1_129_2455_n742
*748 DP_OP_687J1_129_2455_n740
*749 DP_OP_687J1_129_2455_n729
*750 DP_OP_687J1_129_2455_n728
*751 DP_OP_687J1_129_2455_n727
*752 DP_OP_687J1_129_2455_n726
*753 DP_OP_687J1_129_2455_n723
*754 DP_OP_687J1_129_2455_n721
*755 DP_OP_687J1_129_2455_n720
*756 DP_OP_687J1_129_2455_n719
*757 DP_OP_687J1_129_2455_n717
*758 DP_OP_687J1_129_2455_n706
*759 DP_OP_687J1_129_2455_n705
*760 DP_OP_687J1_129_2455_n704
*761 DP_OP_687J1_129_2455_n703
*762 DP_OP_687J1_129_2455_n700
*763 DP_OP_687J1_129_2455_n699
*764 DP_OP_687J1_129_2455_n698
*765 DP_OP_687J1_129_2455_n697
*766 DP_OP_687J1_129_2455_n696
*767 DP_OP_687J1_129_2455_n694
*768 DP_OP_687J1_129_2455_n683
*769 DP_OP_687J1_129_2455_n682
*770 DP_OP_687J1_129_2455_n681
*771 DP_OP_687J1_129_2455_n677
*772 DP_OP_687J1_129_2455_n676
*773 DP_OP_687J1_129_2455_n675
*774 DP_OP_687J1_129_2455_n671
*775 DP_OP_687J1_129_2455_n660
*776 DP_OP_687J1_129_2455_n659
*777 DP_OP_687J1_129_2455_n658
*778 DP_OP_687J1_129_2455_n657
*779 DP_OP_687J1_129_2455_n654
*780 DP_OP_687J1_129_2455_n653
*781 DP_OP_687J1_129_2455_n651
*782 DP_OP_687J1_129_2455_n648
*783 DP_OP_687J1_129_2455_n637
*784 DP_OP_687J1_129_2455_n636
*785 DP_OP_687J1_129_2455_n635
*786 DP_OP_687J1_129_2455_n634
*787 DP_OP_687J1_129_2455_n630
*788 DP_OP_687J1_129_2455_n629
*789 DP_OP_687J1_129_2455_n627
*790 DP_OP_687J1_129_2455_n625
*791 DP_OP_687J1_129_2455_n613
*792 DP_OP_687J1_129_2455_n612
*793 DP_OP_687J1_129_2455_n606
*794 DP_OP_687J1_129_2455_n605
*795 DP_OP_687J1_129_2455_n604
*796 DP_OP_687J1_129_2455_n600
*797 DP_OP_687J1_129_2455_n599
*798 DP_OP_687J1_129_2455_n592
*799 DP_OP_687J1_129_2455_n591
*800 DP_OP_687J1_129_2455_n588
*801 DP_OP_687J1_129_2455_n587
*802 DP_OP_687J1_129_2455_n579
*803 DP_OP_687J1_129_2455_n547
*804 DP_OP_687J1_129_2455_n546
*805 DP_OP_687J1_129_2455_n545
*806 DP_OP_687J1_129_2455_n544
*807 DP_OP_687J1_129_2455_n543
*808 DP_OP_687J1_129_2455_n524
*809 DP_OP_687J1_129_2455_n523
*810 DP_OP_687J1_129_2455_n512
*811 DP_OP_687J1_129_2455_n449
*812 DP_OP_687J1_129_2455_n448
*813 DP_OP_687J1_129_2455_n386
*814 DP_OP_687J1_129_2455_n383
*815 DP_OP_687J1_129_2455_n305
*816 DP_OP_687J1_129_2455_n304
*817 DP_OP_687J1_129_2455_n189
*818 DP_OP_687J1_129_2455_n138
*819 DP_OP_687J1_129_2455_n137
*820 DP_OP_687J1_129_2455_n132
*821 DP_OP_687J1_129_2455_n131
*822 DP_OP_687J1_129_2455_n123
*823 DP_OP_687J1_129_2455_n122
*824 DP_OP_687J1_129_2455_n44
*825 DP_OP_687J1_129_2455_n41
*826 DP_OP_686J1_128_2455_n1274
*827 DP_OP_686J1_128_2455_n1255
*828 DP_OP_686J1_128_2455_n1236
*829 DP_OP_686J1_128_2455_n1217
*830 DP_OP_686J1_128_2455_n1198
*831 DP_OP_686J1_128_2455_n1179
*832 DP_OP_686J1_128_2455_n1160
*833 DP_OP_686J1_128_2455_n1141
*834 DP_OP_686J1_128_2455_n1122
*835 DP_OP_686J1_128_2455_n1103
*836 DP_OP_686J1_128_2455_n1084
*837 DP_OP_686J1_128_2455_n1065
*838 DP_OP_686J1_128_2455_n1046
*839 DP_OP_686J1_128_2455_n1027
*840 DP_OP_686J1_128_2455_n1019
*841 DP_OP_686J1_128_2455_n1008
*842 DP_OP_686J1_128_2455_n995
*843 DP_OP_686J1_128_2455_n959
*844 DP_OP_686J1_128_2455_n957
*845 DP_OP_686J1_128_2455_n953
*846 DP_OP_686J1_128_2455_n952
*847 DP_OP_686J1_128_2455_n949
*848 DP_OP_686J1_128_2455_n947
*849 DP_OP_686J1_128_2455_n936
*850 DP_OP_686J1_128_2455_n930
*851 DP_OP_686J1_128_2455_n926
*852 DP_OP_686J1_128_2455_n924
*853 DP_OP_686J1_128_2455_n913
*854 DP_OP_686J1_128_2455_n912
*855 DP_OP_686J1_128_2455_n907
*856 DP_OP_686J1_128_2455_n906
*857 DP_OP_686J1_128_2455_n889
*858 DP_OP_686J1_128_2455_n884
*859 DP_OP_686J1_128_2455_n880
*860 DP_OP_686J1_128_2455_n878
*861 DP_OP_686J1_128_2455_n866
*862 DP_OP_686J1_128_2455_n857
*863 DP_OP_686J1_128_2455_n855
*864 DP_OP_686J1_128_2455_n844
*865 DP_OP_686J1_128_2455_n843
*866 DP_OP_686J1_128_2455_n838
*867 DP_OP_686J1_128_2455_n837
*868 DP_OP_686J1_128_2455_n834
*869 DP_OP_686J1_128_2455_n832
*870 DP_OP_686J1_128_2455_n821
*871 DP_OP_686J1_128_2455_n820
*872 DP_OP_686J1_128_2455_n819
*873 DP_OP_686J1_128_2455_n815
*874 DP_OP_686J1_128_2455_n811
*875 DP_OP_686J1_128_2455_n809
*876 DP_OP_686J1_128_2455_n798
*877 DP_OP_686J1_128_2455_n797
*878 DP_OP_686J1_128_2455_n792
*879 DP_OP_686J1_128_2455_n788
*880 DP_OP_686J1_128_2455_n786
*881 DP_OP_686J1_128_2455_n775
*882 DP_OP_686J1_128_2455_n774
*883 DP_OP_686J1_128_2455_n769
*884 DP_OP_686J1_128_2455_n766
*885 DP_OP_686J1_128_2455_n765
*886 DP_OP_686J1_128_2455_n763
*887 DP_OP_686J1_128_2455_n752
*888 DP_OP_686J1_128_2455_n751
*889 DP_OP_686J1_128_2455_n750
*890 DP_OP_686J1_128_2455_n746
*891 DP_OP_686J1_128_2455_n742
*892 DP_OP_686J1_128_2455_n740
*893 DP_OP_686J1_128_2455_n729
*894 DP_OP_686J1_128_2455_n728
*895 DP_OP_686J1_128_2455_n727
*896 DP_OP_686J1_128_2455_n723
*897 DP_OP_686J1_128_2455_n719
*898 DP_OP_686J1_128_2455_n717
*899 DP_OP_686J1_128_2455_n706
*900 DP_OP_686J1_128_2455_n705
*901 DP_OP_686J1_128_2455_n700
*902 DP_OP_686J1_128_2455_n699
*903 DP_OP_686J1_128_2455_n698
*904 DP_OP_686J1_128_2455_n696
*905 DP_OP_686J1_128_2455_n683
*906 DP_OP_686J1_128_2455_n682
*907 DP_OP_686J1_128_2455_n681
*908 DP_OP_686J1_128_2455_n677
*909 DP_OP_686J1_128_2455_n671
*910 DP_OP_686J1_128_2455_n660
*911 DP_OP_686J1_128_2455_n659
*912 DP_OP_686J1_128_2455_n658
*913 DP_OP_686J1_128_2455_n654
*914 DP_OP_686J1_128_2455_n648
*915 DP_OP_686J1_128_2455_n637
*916 DP_OP_686J1_128_2455_n636
*917 DP_OP_686J1_128_2455_n605
*918 DP_OP_686J1_128_2455_n604
*919 DP_OP_686J1_128_2455_n592
*920 DP_OP_686J1_128_2455_n591
*921 DP_OP_686J1_128_2455_n588
*922 DP_OP_686J1_128_2455_n587
*923 DP_OP_686J1_128_2455_n579
*924 DP_OP_686J1_128_2455_n545
*925 DP_OP_686J1_128_2455_n544
*926 DP_OP_686J1_128_2455_n524
*927 DP_OP_686J1_128_2455_n523
*928 DP_OP_686J1_128_2455_n512
*929 DP_OP_686J1_128_2455_n449
*930 DP_OP_686J1_128_2455_n448
*931 DP_OP_686J1_128_2455_n386
*932 DP_OP_686J1_128_2455_n383
*933 DP_OP_686J1_128_2455_n305
*934 DP_OP_686J1_128_2455_n304
*935 DP_OP_686J1_128_2455_n189
*936 DP_OP_686J1_128_2455_n145
*937 DP_OP_686J1_128_2455_n138
*938 DP_OP_686J1_128_2455_n137
*939 DP_OP_686J1_128_2455_n132
*940 DP_OP_686J1_128_2455_n131
*941 DP_OP_686J1_128_2455_n125
*942 DP_OP_686J1_128_2455_n123
*943 DP_OP_686J1_128_2455_n122
*944 DP_OP_686J1_128_2455_n44
*945 DP_OP_686J1_128_2455_n41
*946 DP_OP_686J1_128_2455_n29
*947 DP_OP_686J1_128_2455_n26
*948 DP_OP_685J1_127_2455_n1274
*949 DP_OP_685J1_127_2455_n1255
*950 DP_OP_685J1_127_2455_n1249
*951 DP_OP_685J1_127_2455_n1236
*952 DP_OP_685J1_127_2455_n1217
*953 DP_OP_685J1_127_2455_n1198
*954 DP_OP_685J1_127_2455_n1179
*955 DP_OP_685J1_127_2455_n1160
*956 DP_OP_685J1_127_2455_n1141
*957 DP_OP_685J1_127_2455_n1122
*958 DP_OP_685J1_127_2455_n1103
*959 DP_OP_685J1_127_2455_n1084
*960 DP_OP_685J1_127_2455_n1065
*961 DP_OP_685J1_127_2455_n1046
*962 DP_OP_685J1_127_2455_n1027
*963 DP_OP_685J1_127_2455_n1008
*964 DP_OP_685J1_127_2455_n989
*965 DP_OP_685J1_127_2455_n947
*966 DP_OP_685J1_127_2455_n930
*967 DP_OP_685J1_127_2455_n929
*968 DP_OP_685J1_127_2455_n924
*969 DP_OP_685J1_127_2455_n907
*970 DP_OP_685J1_127_2455_n906
*971 DP_OP_685J1_127_2455_n889
*972 DP_OP_685J1_127_2455_n884
*973 DP_OP_685J1_127_2455_n878
*974 DP_OP_685J1_127_2455_n866
*975 DP_OP_685J1_127_2455_n861
*976 DP_OP_685J1_127_2455_n860
*977 DP_OP_685J1_127_2455_n855
*978 DP_OP_685J1_127_2455_n843
*979 DP_OP_685J1_127_2455_n838
*980 DP_OP_685J1_127_2455_n837
*981 DP_OP_685J1_127_2455_n836
*982 DP_OP_685J1_127_2455_n832
*983 DP_OP_685J1_127_2455_n815
*984 DP_OP_685J1_127_2455_n809
*985 DP_OP_685J1_127_2455_n797
*986 DP_OP_685J1_127_2455_n789
*987 DP_OP_685J1_127_2455_n788
*988 DP_OP_685J1_127_2455_n786
*989 DP_OP_685J1_127_2455_n769
*990 DP_OP_685J1_127_2455_n768
*991 DP_OP_685J1_127_2455_n763
*992 DP_OP_685J1_127_2455_n751
*993 DP_OP_685J1_127_2455_n746
*994 DP_OP_685J1_127_2455_n745
*995 DP_OP_685J1_127_2455_n740
*996 DP_OP_685J1_127_2455_n723
*997 DP_OP_685J1_127_2455_n717
*998 DP_OP_685J1_127_2455_n706
*999 DP_OP_685J1_127_2455_n705
*1000 DP_OP_685J1_127_2455_n700
*1001 DP_OP_685J1_127_2455_n699
*1002 DP_OP_685J1_127_2455_n697
*1003 DP_OP_685J1_127_2455_n696
*1004 DP_OP_685J1_127_2455_n694
*1005 DP_OP_685J1_127_2455_n683
*1006 DP_OP_685J1_127_2455_n682
*1007 DP_OP_685J1_127_2455_n677
*1008 DP_OP_685J1_127_2455_n676
*1009 DP_OP_685J1_127_2455_n671
*1010 DP_OP_685J1_127_2455_n660
*1011 DP_OP_685J1_127_2455_n659
*1012 DP_OP_685J1_127_2455_n654
*1013 DP_OP_685J1_127_2455_n653
*1014 DP_OP_685J1_127_2455_n648
*1015 DP_OP_685J1_127_2455_n636
*1016 DP_OP_685J1_127_2455_n625
*1017 DP_OP_685J1_127_2455_n604
*1018 DP_OP_685J1_127_2455_n588
*1019 DP_OP_685J1_127_2455_n587
*1020 DP_OP_685J1_127_2455_n579
*1021 DP_OP_685J1_127_2455_n545
*1022 DP_OP_685J1_127_2455_n544
*1023 DP_OP_685J1_127_2455_n512
*1024 DP_OP_685J1_127_2455_n449
*1025 DP_OP_685J1_127_2455_n448
*1026 DP_OP_685J1_127_2455_n386
*1027 DP_OP_685J1_127_2455_n383
*1028 DP_OP_685J1_127_2455_n304
*1029 DP_OP_685J1_127_2455_n189
*1030 DP_OP_685J1_127_2455_n138
*1031 DP_OP_685J1_127_2455_n137
*1032 DP_OP_685J1_127_2455_n133
*1033 DP_OP_685J1_127_2455_n132
*1034 DP_OP_685J1_127_2455_n123
*1035 DP_OP_685J1_127_2455_n122
*1036 DP_OP_685J1_127_2455_n44
*1037 DP_OP_685J1_127_2455_n41
*1038 DP_OP_685J1_127_2455_n26
*1039 DP_OP_683J1_125_2455_n957
*1040 DP_OP_683J1_125_2455_n948
*1041 DP_OP_683J1_125_2455_n928
*1042 DP_OP_683J1_125_2455_n911
*1043 DP_OP_683J1_125_2455_n904
*1044 DP_OP_683J1_125_2455_n901
*1045 DP_OP_683J1_125_2455_n888
*1046 DP_OP_683J1_125_2455_n878
*1047 DP_OP_683J1_125_2455_n858
*1048 DP_OP_683J1_125_2455_n842
*1049 DP_OP_683J1_125_2455_n836
*1050 DP_OP_683J1_125_2455_n832
*1051 DP_OP_683J1_125_2455_n796
*1052 DP_OP_683J1_125_2455_n789
*1053 DP_OP_683J1_125_2455_n786
*1054 DP_OP_683J1_125_2455_n764
*1055 DP_OP_683J1_125_2455_n763
*1056 DP_OP_683J1_125_2455_n750
*1057 DP_OP_683J1_125_2455_n717
*1058 DP_OP_683J1_125_2455_n629
*1059 DP_OP_683J1_125_2455_n625
*1060 DP_OP_683J1_125_2455_n609
*1061 DP_OP_683J1_125_2455_n608
*1062 DP_OP_683J1_125_2455_n533
*1063 DP_OP_683J1_125_2455_n470
*1064 DP_OP_683J1_125_2455_n143
*1065 DP_OP_684J1_126_2455_n973
*1066 DP_OP_684J1_126_2455_n971
*1067 DP_OP_684J1_126_2455_n951
*1068 DP_OP_684J1_126_2455_n950
*1069 DP_OP_684J1_126_2455_n948
*1070 DP_OP_684J1_126_2455_n930
*1071 DP_OP_684J1_126_2455_n928
*1072 DP_OP_684J1_126_2455_n927
*1073 DP_OP_684J1_126_2455_n925
*1074 DP_OP_684J1_126_2455_n921
*1075 DP_OP_684J1_126_2455_n905
*1076 DP_OP_684J1_126_2455_n904
*1077 DP_OP_684J1_126_2455_n903
*1078 DP_OP_684J1_126_2455_n902
*1079 DP_OP_684J1_126_2455_n900
*1080 DP_OP_684J1_126_2455_n882
*1081 DP_OP_684J1_126_2455_n881
*1082 DP_OP_684J1_126_2455_n879
*1083 DP_OP_684J1_126_2455_n859
*1084 DP_OP_684J1_126_2455_n858
*1085 DP_OP_684J1_126_2455_n856
*1086 DP_OP_684J1_126_2455_n836
*1087 DP_OP_684J1_126_2455_n835
*1088 DP_OP_684J1_126_2455_n833
*1089 DP_OP_684J1_126_2455_n832
*1090 DP_OP_684J1_126_2455_n813
*1091 DP_OP_684J1_126_2455_n812
*1092 DP_OP_684J1_126_2455_n810
*1093 DP_OP_684J1_126_2455_n790
*1094 DP_OP_684J1_126_2455_n789
*1095 DP_OP_684J1_126_2455_n787
*1096 DP_OP_684J1_126_2455_n766
*1097 DP_OP_684J1_126_2455_n764
*1098 DP_OP_684J1_126_2455_n743
*1099 DP_OP_684J1_126_2455_n741
*1100 DP_OP_684J1_126_2455_n727
*1101 DP_OP_684J1_126_2455_n720
*1102 DP_OP_684J1_126_2455_n718
*1103 DP_OP_684J1_126_2455_n698
*1104 DP_OP_684J1_126_2455_n697
*1105 DP_OP_684J1_126_2455_n695
*1106 DP_OP_684J1_126_2455_n675
*1107 DP_OP_684J1_126_2455_n674
*1108 DP_OP_684J1_126_2455_n672
*1109 DP_OP_684J1_126_2455_n652
*1110 DP_OP_684J1_126_2455_n651
*1111 DP_OP_684J1_126_2455_n650
*1112 DP_OP_684J1_126_2455_n649
*1113 DP_OP_684J1_126_2455_n629
*1114 DP_OP_684J1_126_2455_n628
*1115 DP_OP_684J1_126_2455_n627
*1116 DP_OP_684J1_126_2455_n626
*1117 DP_OP_684J1_126_2455_n625
*1118 DP_OP_684J1_126_2455_n609
*1119 DP_OP_684J1_126_2455_n608
*1120 DP_OP_684J1_126_2455_n600
*1121 DP_OP_684J1_126_2455_n570
*1122 DP_OP_684J1_126_2455_n569
*1123 DP_OP_684J1_126_2455_n565
*1124 DP_OP_684J1_126_2455_n533
*1125 DP_OP_684J1_126_2455_n470
*1126 DP_OP_684J1_126_2455_n327
*1127 DP_OP_684J1_126_2455_n324
*1128 DP_OP_684J1_126_2455_n178
*1129 DP_OP_684J1_126_2455_n143
*1130 DP_OP_684J1_126_2455_n142
*1131 n484
*1132 n493
*1133 n501
*1134 n526
*1135 n530
*1136 n536
*1137 n537
*1138 n538
*1139 n539
*1140 n540
*1141 n543
*1142 n545
*1143 n546
*1144 n547
*1145 n548
*1146 n571
*1147 n574
*1148 n575
*1149 n580
*1150 n587
*1151 n588
*1152 n614
*1153 n622
*1154 n640
*1155 n647
*1156 n648
*1157 n654
*1158 n664
*1159 n669
*1160 n673
*1161 n681
*1162 n690
*1163 n731
*1164 n764
*1165 n765
*1166 n769
*1167 n773
*1168 n787
*1169 n788
*1170 n789
*1171 n810
*1172 n819
*1173 n821
*1174 n828
*1175 n852
*1176 n853
*1177 n856
*1178 n860
*1179 n861
*1180 n862
*1181 n886
*1182 n904
*1183 n906
*1184 n945
*1185 n961
*1186 n968
*1187 n970
*1188 n975
*1189 n1032
*1190 n1040
*1191 n1065
*1192 n1066
*1193 n1076
*1194 n1092
*1195 n1093
*1196 n1094
*1197 n1126
*1198 n1128
*1199 n1139
*1200 n1169
*1201 n1184
*1202 n1192
*1203 n1207
*1204 n1235
*1205 n1244
*1206 n1254
*1207 n1268
*1208 n1273
*1209 n1292
*1210 n1300
*1211 n1302
*1212 n1324
*1213 n1351
*1214 n1356
*1215 n1399
*1216 n1414
*1217 n1457
*1218 n1462
*1219 n1466
*1220 n1471
*1221 n1474
*1222 n1476
*1223 n1484
*1224 n1486
*1225 n1501
*1226 n1531
*1227 n1536
*1228 n1569
*1229 n1614
*1230 n1623
*1231 n1633
*1232 n1661
*1233 n1675
*1234 n1676
*1235 n1698
*1236 n1707
*1237 n1714
*1238 n1719
*1239 n1721
*1240 n1729
*1241 n1734
*1242 n1735
*1243 n1736
*1244 n1737
*1245 n1738
*1246 n1739
*1247 n1743
*1248 n1746
*1249 n1755
*1250 n1769
*1251 n1779
*1252 n1780
*1253 n1781
*1254 n1782
*1255 n1783
*1256 n1784
*1257 n1823
*1258 n1832
*1259 n1852
*1260 n1866
*1261 n1868
*1262 n1887
*1263 n1890
*1264 n1895
*1265 n1914
*1266 n1919
*1267 n1922
*1268 n1923
*1269 n1924
*1270 n1925
*1271 n1926
*1272 n1927
*1273 n1931
*1274 n1973
*1275 n2005
*1276 n2010
*1277 n2033
*1278 n2044
*1279 n2054
*1280 n2061
*1281 n2062
*1282 n2073
*1283 n2074
*1284 n2077
*1285 n2086
*1286 n2090
*1287 n2126
*1288 n2132
*1289 n2162
*1290 n2175
*1291 n2181
*1292 n2199
*1293 n2203
*1294 n2210
*1295 n2231
*1296 n2239
*1297 n2242
*1298 n2261
*1299 n2262
*1300 n2290
*1301 n2296
*1302 n2329
*1303 n2340
*1304 n2345
*1305 n2346
*1306 n2371
*1307 n2374
*1308 n2385
*1309 n2386
*1310 n2387
*1311 n2411
*1312 n2456
*1313 n2506
*1314 n2513
*1315 n2520
*1316 n2521
*1317 n2527
*1318 n2531
*1319 n2559
*1320 n2564
*1321 n2566
*1322 n2576
*1323 n2577
*1324 n2578
*1325 n2586
*1326 n2589
*1327 n2590
*1328 n2600
*1329 n2623
*1330 n2624
*1331 n2627
*1332 n2629
*1333 n2635
*1334 n2648
*1335 n2651
*1336 n2664
*1337 n2668
*1338 n2669
*1339 n2670
*1340 n2671
*1341 n2680
*1342 n2681
*1343 n2694
*1344 n2700
*1345 n2703